/*--------------------------------*- C++ -*----------------------------------*\
| =========                 |                                                 |
| \\      /  F ield         | OpenFOAM: The Open Source CFD Toolbox           |
|  \\    /   O peration     | Version:  v1906                                 |
|   \\  /    A nd           | Web:      www.OpenFOAM.com                      |
|    \\/     M anipulation  |                                                 |
\*---------------------------------------------------------------------------*/
FoamFile
{
    version     2.0;
    format      ascii;
    class       volScalarField;
    object      T;
}
// * * * * * * * * * * * * * * * * * * * * * * * * * * * * * * * * * * * * * //

dimensions      [0 0 0 1 0 0 0];

internalField   uniform 0;

boundaryField
{
    inlet_one
    {
        type            fixedValue;
        value           uniform 0;
    }

    inlet_two
    {
        type            fixedValue;
	value 		uniform 1;
    }

    outlet
    {
	type		zeroGradient;
    }
    wall
    {
        type            zeroGradient;
    }
    defaultFaces
    {
        type        slip;
        value       $internalField;
    }
}

// ************************************************************************* //
