/*--------------------------------*- C++ -*----------------------------------*\
| =========                 |                                                 |
| \\      /  F ield         | OpenFOAM: The Open Source CFD Toolbox           |
|  \\    /   O peration     | Version:  v1906                                 |
|   \\  /    A nd           | Web:      www.OpenFOAM.com                      |
|    \\/     M anipulation  |                                                 |
\*---------------------------------------------------------------------------*/
FoamFile
{
    version     2.0;
    format      ascii;
    class       dictionary;
    object      extrudeMeshDict;
}
// * * * * * * * * * * * * * * * * * * * * * * * * * * * * * * * * * * * * * //

// What to extrude:
//      patch   : from patch of another case ('sourceCase')
//      mesh    : as above but with original case included
//      surface : from externally read surface


//constructFrom mesh;
constructFrom patch;
sourceCase "$FOAM_CASE";
sourcePatches (front);

// If construct from patch: patch to use for back (can be same as sourcePatch)
exposedPatchName back;

// Flip surface normals before usage. Valid only for extrude from surface or
// patch.
flipNormals false;

//- Linear extrusion in point-normal direction
extrudeModel        wedge;

point (0 0 0);
axis (1 0 0);
angle 15;


//wedgeCoeffs
//{
//	point	(0 0 -0.0005);
//	axis	(1 0 0);
//	angle	30;
//}
	

nLayers             1;

expansionRatio      1.0;

linearNormalCoeffs
{
    thickness       0.05;
}

// Do front and back need to be merged? Usually only makes sense for 360
// degree wedges.
mergeFaces false;   //true;

// Merge small edges. Fraction of bounding box.
mergeTol 0;


// * * * * * * * * * * * * * * * * * * * * * * * * * * * * * * * * * * * * * //
