/*--------------------------------*- C++ -*----------------------------------*\
| =========                 |                                                 |
| \\      /  F ield         | OpenFOAM: The Open Source CFD Toolbox           |
|  \\    /   O peration     | Version:  4.x                                   |
|   \\  /    A nd           | Web:      www.OpenFOAM.org                      |
|    \\/     M anipulation  |                                                 |
\*---------------------------------------------------------------------------*/
FoamFile
{
    version     2.0;
    format      ascii;
    class       dictionary;
    object      createPatchDict;
}
// * * * * * * * * * * * * * * * * * * * * * * * * * * * * * * * * * * * * * //

pointSync false;

// Patches to create.
patches
(
    {
        name inlet_one;
        patchInfo
        {
            type patch;
        }
        constructFrom patches;
        patches ( face9 );
    }

    {
        name inlet_two;
        patchInfo
        {
            type patch;
        }
        constructFrom patches;
        patches ( face5 );
    }

    {
        name outlet;
        patchInfo
        {
            type patch;
        }
        constructFrom patches;
        patches ( face0 );
    }

    {
        name wall;
        patchInfo
        {
            type wall;
        }
        constructFrom patches;
        patches ( face1 face2 face3 face4 face6 face7 face8 );
    }


);


// ************************************************************************* //
