/*--------------------------------*- C++ -*----------------------------------*\
  =========                 |
  \\      /  F ield         | OpenFOAM: The Open Source CFD Toolbox
   \\    /   O peration     | Website:  https://openfoam.org
    \\  /    A nd           | Version:  7
     \\/     M anipulation  |
\*---------------------------------------------------------------------------*/
FoamFile
{
    version     2.0;
    format      ascii;
    class       dictionary;
    location    "system";
    object      fvSolution;
}
// * * * * * * * * * * * * * * * * * * * * * * * * * * * * * * * * * * * * * //

solvers
{
    p
    {
        solver          GAMG;
        tolerance       1e-6;
        relTol          0.0;
        smoother        GaussSeidel;
    }
	
	pFinal 
	{
	$p
	}

    "(U|k|epsilon|omega|f|v2)"
    {
        solver          smoothSolver;
        smoother        symGaussSeidel;
        tolerance       1e-5;
        relTol          0.0;
    }
	UFinal
	{
	$U
	}
}

SIMPLE
{
    nNonOrthogonalCorrectors 0;
    consistent      yes;

    residualControl
    {
        p               1e-5;
        U               1e-6;
        "(k|epsilon|omega|f|v2)" 1e-6;
    }
}

PIMPLE
{
    correctPhi          no;
    nOuterCorrectors    5;
    nCorrectors         3;
    nNonOrthogonalCorrectors 0;

    pRefCell        0;
    pRefValue       0;

    moveMeshOuterCorrectors true;

    consistent true;
}

relaxationFactors
{
    equations
    {
        U               0.7; // 0.9 is more stable but 0.95 more convergent
        p               0.3;
        ".*"            0.7; // 0.9 is more stable but 0.95 more convergent
    }
}


// ************************************************************************* //
