/*--------------------------------*- C++ -*----------------------------------*\
| =========                 |                                                 |
| \\      /  F ield         | OpenFOAM: The Open Source CFD Toolbox           |
|  \\    /   O peration     | Version:  v1906                                 |
|   \\  /    A nd           | Web:      www.OpenFOAM.com                      |
|    \\/     M anipulation  |                                                 |
\*---------------------------------------------------------------------------*/
FoamFile
{
    version     2.0;
    format      ascii;
    class       extendedFeatureEdgeMesh;
    location    "constant/extendedFeatureEdgeMesh";
    object      MeshRefinement.extendedFeatureEdgeMesh;
}
// * * * * * * * * * * * * * * * * * * * * * * * * * * * * * * * * * * * * * //

// points

301
(
(0.0299999993294477 0.00300000002607703 0)
(0.0299999993294477 0.0029128254391253 0.000717947026714683)
(0.0299999993294477 0.0029128254391253 -0.000717947026714683)
(0.0299999993294477 0.00265636807307601 0.00139416952151805)
(0.0299999993294477 0.00224553234875202 0.00198936788365245)
(0.0299999993294477 0.00170419423375279 0.00246895174495876)
(0.0299999993294477 0.00106381461955607 0.00280504859983921)
(0.0299999993294477 0.000361610058462247 0.00297812651842833)
(0.0299999993294477 -0.000361610058462247 0.00297812651842833)
(0.0299999993294477 -0.00106381461955607 0.00280504859983921)
(0.0299999993294477 -0.00170419423375279 0.00246895174495876)
(0.0299999993294477 -0.00224553234875202 0.00198936788365245)
(0.0299999993294477 -0.00265636807307601 0.00139416952151805)
(0.0299999993294477 -0.0029128254391253 0.000717947026714683)
(0.0299999993294477 -0.00300000002607703 3.03192920568809e-18)
(0.0299999993294477 -0.0029128254391253 -0.000717947026714683)
(0.0299999993294477 -0.00265636807307601 -0.00139416952151805)
(0.0299999993294477 -0.00224553234875202 -0.00198936788365245)
(0.0299999993294477 -0.00170419423375279 -0.00246895174495876)
(0.0299999993294477 -0.00106381461955607 -0.00280504859983921)
(0.0299999993294477 -0.000361610058462247 -0.00297812651842833)
(0.0299999993294477 0.000361610058462247 -0.00297812651842833)
(0.0299999993294477 0.00106381461955607 -0.00280504859983921)
(0.0299999993294477 0.00170419423375279 -0.00246895174495876)
(0.0299999993294477 0.00224553234875202 -0.00198936788365245)
(0.0299999993294477 0.00265636807307601 -0.00139416952151805)
(0.0274999998509884 0.00600000005215406 0)
(0.0274999998509884 0.0059035774320364 0.00107134145218879)
(0.0274999998509884 0.0059035774320364 -0.00107134145218879)
(0.0274999998509884 0.00561740901321173 0.00210824888199568)
(0.0274999998509884 0.00515069300308824 0.0030773957259953)
(0.0274999998509884 0.0045184288173914 0.00394763238728046)
(0.0274999998509884 0.00374093884602189 0.00469098892062902)
(0.0274999998509884 0.00284321187064052 0.0052835731767118)
(0.0274999998509884 0.00185410201083869 0.00570633867755532)
(0.0274999998509884 0.000805399613454938 0.00594569882377982)
(0.0274999998509884 -0.00026918898220174 0.00599395856261253)
(0.0274999998509884 -0.00133512553293258 0.00584956724196672)
(0.0274999998509884 -0.00235815020278096 0.00551716657355428)
(0.0274999998509884 -0.00330538186244667 0.00500743975862861)
(0.0274999998509884 -0.00414637569338083 0.00433676922693849)
(0.0274999998509884 -0.00485410215333104 0.00352671137079597)
(0.0274999998509884 -0.00540581298992038 0.00260330247692764)
(0.0274999998509884 -0.00578377721831203 0.0015962211182341)
(0.0274999998509884 -0.00597584573552012 0.000537835818249732)
(0.0274999998509884 -0.00597584573552012 -0.000537835818249732)
(0.0274999998509884 -0.00578377721831203 -0.0015962211182341)
(0.0274999998509884 -0.00540581298992038 -0.00260330247692764)
(0.0274999998509884 -0.00485410215333104 -0.00352671137079597)
(0.0274999998509884 -0.00414637569338083 -0.00433676922693849)
(0.0274999998509884 -0.00330538186244667 -0.00500743975862861)
(0.0274999998509884 -0.00235815020278096 -0.00551716657355428)
(0.0274999998509884 -0.00133512553293258 -0.00584956724196672)
(0.0274999998509884 -0.00026918898220174 -0.00599395856261253)
(0.0274999998509884 0.000805399613454938 -0.00594569882377982)
(0.0274999998509884 0.00185410201083869 -0.00570633867755532)
(0.0274999998509884 0.00284321187064052 -0.0052835731767118)
(0.0274999998509884 0.00374093884602189 -0.00469098892062902)
(0.0274999998509884 0.0045184288173914 -0.00394763238728046)
(0.0274999998509884 0.00515069300308824 -0.0030773957259953)
(0.0274999998509884 0.00561740901321173 -0.00210824888199568)
(0.025000000372529 0.00800000037997961 0)
(0.025000000372529 0.007901506498456 0.0012514756526798)
(0.025000000372529 0.007901506498456 -0.0012514756526798)
(0.025000000372529 0.00760845234617591 0.00247213593684137)
(0.025000000372529 0.00712805241346359 0.00363192381337285)
(0.025000000372529 0.00647213589400053 0.00470228213816881)
(0.025000000372529 0.00565685424953699 0.00565685424953699)
(0.025000000372529 0.00470228213816881 0.00647213589400053)
(0.025000000372529 0.00363192381337285 0.00712805241346359)
(0.025000000372529 0.00247213593684137 0.00760845234617591)
(0.025000000372529 0.0012514756526798 0.007901506498456)
(0.025000000372529 4.89858736898164e-19 0.00800000037997961)
(0.025000000372529 -0.0012514756526798 0.007901506498456)
(0.025000000372529 -0.00247213593684137 0.00760845234617591)
(0.025000000372529 -0.00363192381337285 0.00712805241346359)
(0.025000000372529 -0.00470228213816881 0.00647213589400053)
(0.025000000372529 -0.00565685424953699 0.00565685424953699)
(0.025000000372529 -0.00647213589400053 0.00470228213816881)
(0.025000000372529 -0.00712805241346359 0.00363192381337285)
(0.025000000372529 -0.00760845234617591 0.00247213593684137)
(0.025000000372529 -0.007901506498456 0.0012514756526798)
(0.025000000372529 -0.00800000037997961 9.79717473796328e-19)
(0.025000000372529 -0.007901506498456 -0.0012514756526798)
(0.025000000372529 -0.00760845234617591 -0.00247213593684137)
(0.025000000372529 -0.00712805241346359 -0.00363192381337285)
(0.025000000372529 -0.00647213589400053 -0.00470228213816881)
(0.025000000372529 -0.00565685424953699 -0.00565685424953699)
(0.025000000372529 -0.00470228213816881 -0.00647213589400053)
(0.025000000372529 -0.00363192381337285 -0.00712805241346359)
(0.025000000372529 -0.00247213593684137 -0.00760845234617591)
(0.025000000372529 -0.0012514756526798 -0.007901506498456)
(0.025000000372529 -1.46957610729692e-18 -0.00800000037997961)
(0.025000000372529 0.0012514756526798 -0.007901506498456)
(0.025000000372529 0.00247213593684137 -0.00760845234617591)
(0.025000000372529 0.00363192381337285 -0.00712805241346359)
(0.025000000372529 0.00470228213816881 -0.00647213589400053)
(0.025000000372529 0.00565685424953699 -0.00565685424953699)
(0.025000000372529 0.00647213589400053 -0.00470228213816881)
(0.025000000372529 0.00712805241346359 -0.00363192381337285)
(0.025000000372529 0.00760845234617591 -0.00247213593684137)
(0.0140000004321337 0.00600000005215406 0)
(0.0140000004321337 0.0059035774320364 0.00107134145218879)
(0.0140000004321337 0.00561740901321173 0.00210824888199568)
(0.0140000004321337 0.00515069300308824 0.0030773957259953)
(0.0140000004321337 0.0045184288173914 0.00394763238728046)
(0.0140000004321337 0.00374093884602189 0.00469098892062902)
(0.0140000004321337 0.00284321187064052 0.0052835731767118)
(0.0140000004321337 0.00185410201083869 0.00570633867755532)
(0.0140000004321337 0.000805399613454938 0.00594569882377982)
(0.0140000004321337 -0.00026918898220174 0.00599395856261253)
(0.0140000004321337 -0.00133512553293258 0.00584956724196672)
(0.0140000004321337 -0.00235815020278096 0.00551716657355428)
(0.0140000004321337 -0.00330538186244667 0.00500743975862861)
(0.0140000004321337 -0.00414637569338083 0.00433676922693849)
(0.0140000004321337 -0.00485410215333104 0.00352671137079597)
(0.0140000004321337 -0.00540581298992038 0.00260330247692764)
(0.0140000004321337 -0.00578377721831203 0.0015962211182341)
(0.0140000004321337 -0.00597584573552012 0.000537835818249732)
(0.0140000004321337 -0.00597584573552012 -0.000537835818249732)
(0.0140000004321337 -0.00578377721831203 -0.0015962211182341)
(0.0140000004321337 -0.00540581298992038 -0.00260330247692764)
(0.0140000004321337 -0.00485410215333104 -0.00352671137079597)
(0.0140000004321337 -0.00414637569338083 -0.00433676922693849)
(0.0140000004321337 -0.00330538186244667 -0.00500743975862861)
(0.0140000004321337 -0.00235815020278096 -0.00551716657355428)
(0.0140000004321337 -0.00133512553293258 -0.00584956724196672)
(0.0140000004321337 -0.00026918898220174 -0.00599395856261253)
(0.0140000004321337 0.000805399613454938 -0.00594569882377982)
(0.0140000004321337 0.00185410201083869 -0.00570633867755532)
(0.0140000004321337 0.00284321187064052 -0.0052835731767118)
(0.0140000004321337 0.00374093884602189 -0.00469098892062902)
(0.0140000004321337 0.0045184288173914 -0.00394763238728046)
(0.0140000004321337 0.00515069300308824 -0.0030773957259953)
(0.0140000004321337 0.00561740901321173 -0.00210824888199568)
(0.0140000004321337 0.0059035774320364 -0.00107134145218879)
(0.0149999996647239 0.00300000002607703 0)
(0.0149999996647239 0.0029128254391253 0.000717947026714683)
(0.0149999996647239 0.0029128254391253 -0.000717947026714683)
(0.0149999996647239 0.00265636807307601 0.00139416952151805)
(0.0149999996647239 0.00224553234875202 0.00198936788365245)
(0.0149999996647239 0.00170419423375279 0.00246895174495876)
(0.0149999996647239 0.00106381461955607 0.00280504859983921)
(0.0149999996647239 0.000361610058462247 0.00297812651842833)
(0.0149999996647239 -0.000361610058462247 0.00297812651842833)
(0.0149999996647239 -0.00106381461955607 0.00280504859983921)
(0.0149999996647239 -0.00170419423375279 0.00246895174495876)
(0.0149999996647239 -0.00224553234875202 0.00198936788365245)
(0.0149999996647239 -0.00265636807307601 0.00139416952151805)
(0.0149999996647239 -0.0029128254391253 0.000717947026714683)
(0.0149999996647239 -0.00300000002607703 3.03192920568809e-18)
(0.0149999996647239 -0.0029128254391253 -0.000717947026714683)
(0.0149999996647239 -0.00265636807307601 -0.00139416952151805)
(0.0149999996647239 -0.00224553234875202 -0.00198936788365245)
(0.0149999996647239 -0.00170419423375279 -0.00246895174495876)
(0.0149999996647239 -0.00106381461955607 -0.00280504859983921)
(0.0149999996647239 -0.000361610058462247 -0.00297812651842833)
(0.0149999996647239 0.000361610058462247 -0.00297812651842833)
(0.0149999996647239 0.00106381461955607 -0.00280504859983921)
(0.0149999996647239 0.00170419423375279 -0.00246895174495876)
(0.0149999996647239 0.00224553234875202 -0.00198936788365245)
(0.0149999996647239 0.00265636807307601 -0.00139416952151805)
(0.100000001490116 0.00490392651408911 0.000975451606791466)
(0.100000001490116 0.00499999988824129 0)
(0.100000001490116 0.00490392651408911 -0.000975451606791466)
(0.100000001490116 0.00461939768865705 0.00191341724712402)
(0.100000001490116 0.00415734807029366 0.00277785118669271)
(0.100000001490116 0.0035355337895453 0.0035355337895453)
(0.100000001490116 0.00277785118669271 0.00415734807029366)
(0.100000001490116 0.00191341724712402 0.00461939768865705)
(0.100000001490116 0.000975451606791466 0.00490392651408911)
(0.100000001490116 3.06161697636655e-19 0.00499999988824129)
(0.100000001490116 -0.000975451606791466 0.00490392651408911)
(0.100000001490116 -0.00191341724712402 0.00461939768865705)
(0.100000001490116 -0.00277785118669271 0.00415734807029366)
(0.100000001490116 -0.0035355337895453 0.0035355337895453)
(0.100000001490116 -0.00415734807029366 0.00277785118669271)
(0.100000001490116 -0.00461939768865705 0.00191341724712402)
(0.100000001490116 -0.00490392651408911 0.000975451606791466)
(0.100000001490116 -0.00499999988824129 -3.82856865566443e-18)
(0.100000001490116 -0.00490392651408911 -0.000975451606791466)
(0.100000001490116 -0.00461939768865705 -0.00191341724712402)
(0.100000001490116 -0.00415734807029366 -0.00277785118669271)
(0.100000001490116 -0.0035355337895453 -0.0035355337895453)
(0.100000001490116 -0.00277785118669271 -0.00415734807029366)
(0.100000001490116 -0.00191341724712402 -0.00461939768865705)
(0.100000001490116 -0.000975451606791466 -0.00490392651408911)
(0.100000001490116 1.24041911891502e-17 -0.00499999988824129)
(0.100000001490116 0.000975451606791466 -0.00490392651408911)
(0.100000001490116 0.00191341724712402 -0.00461939768865705)
(0.100000001490116 0.00277785118669271 -0.00415734807029366)
(0.100000001490116 0.0035355337895453 -0.0035355337895453)
(0.100000001490116 0.00415734807029366 -0.00277785118669271)
(0.100000001490116 0.00461939768865705 -0.00191341724712402)
(0 0.00800000037997961 0)
(0 0.007901506498456 0.0012514756526798)
(0 0.00760845234617591 0.00247213593684137)
(0 0.00712805241346359 0.00363192381337285)
(0 0.00647213589400053 0.00470228213816881)
(0 0.00565685424953699 0.00565685424953699)
(0 0.00470228213816881 0.00647213589400053)
(0 0.00363192381337285 0.00712805241346359)
(0 0.00247213593684137 0.00760845234617591)
(0 0.0012514756526798 0.007901506498456)
(0 4.89858736898164e-19 0.00800000037997961)
(0 -0.0012514756526798 0.007901506498456)
(0 -0.00247213593684137 0.00760845234617591)
(0 -0.00363192381337285 0.00712805241346359)
(0 -0.00470228213816881 0.00647213589400053)
(0 -0.00565685424953699 0.00565685424953699)
(0 -0.00647213589400053 0.00470228213816881)
(0 -0.00712805241346359 0.00363192381337285)
(0 -0.00760845234617591 0.00247213593684137)
(0 -0.007901506498456 0.0012514756526798)
(0 -0.00800000037997961 9.79717473796328e-19)
(0 -0.007901506498456 -0.0012514756526798)
(0 -0.00760845234617591 -0.00247213593684137)
(0 -0.00712805241346359 -0.00363192381337285)
(0 -0.00647213589400053 -0.00470228213816881)
(0 -0.00565685424953699 -0.00565685424953699)
(0 -0.00470228213816881 -0.00647213589400053)
(0 -0.00363192381337285 -0.00712805241346359)
(0 -0.00247213593684137 -0.00760845234617591)
(0 -0.0012514756526798 -0.007901506498456)
(0 -1.46957610729692e-18 -0.00800000037997961)
(0 0.0012514756526798 -0.007901506498456)
(0 0.00247213593684137 -0.00760845234617591)
(0 0.00363192381337285 -0.00712805241346359)
(0 0.00470228213816881 -0.00647213589400053)
(0 0.00565685424953699 -0.00565685424953699)
(0 0.00647213589400053 -0.00470228213816881)
(0 0.00712805241346359 -0.00363192381337285)
(0 0.00760845234617591 -0.00247213593684137)
(0 0.007901506498456 -0.0012514756526798)
(0 0.0059035774320364 0.00107134145218879)
(0 0.00600000005215406 0)
(0 0.00561740901321173 0.00210824888199568)
(0 0.00515069300308824 0.0030773957259953)
(0 0.0045184288173914 0.00394763238728046)
(0 0.00374093884602189 0.00469098892062902)
(0 0.00284321187064052 0.0052835731767118)
(0 0.00185410201083869 0.00570633867755532)
(0 0.000805399613454938 0.00594569882377982)
(0 -0.00026918898220174 0.00599395856261253)
(0 -0.00133512553293258 0.00584956724196672)
(0 -0.00235815020278096 0.00551716657355428)
(0 -0.00330538186244667 0.00500743975862861)
(0 -0.00414637569338083 0.00433676922693849)
(0 -0.00485410215333104 0.00352671137079597)
(0 -0.00540581298992038 0.00260330247692764)
(0 -0.00578377721831203 0.0015962211182341)
(0 -0.00597584573552012 0.000537835818249732)
(0 -0.00597584573552012 -0.000537835818249732)
(0 -0.00578377721831203 -0.0015962211182341)
(0 -0.00540581298992038 -0.00260330247692764)
(0 -0.00485410215333104 -0.00352671137079597)
(0 -0.00414637569338083 -0.00433676922693849)
(0 -0.00330538186244667 -0.00500743975862861)
(0 -0.00235815020278096 -0.00551716657355428)
(0 -0.00133512553293258 -0.00584956724196672)
(0 -0.00026918898220174 -0.00599395856261253)
(0 0.000805399613454938 -0.00594569882377982)
(0 0.00185410201083869 -0.00570633867755532)
(0 0.00284321187064052 -0.0052835731767118)
(0 0.00374093884602189 -0.00469098892062902)
(0 0.0045184288173914 -0.00394763238728046)
(0 0.00515069300308824 -0.0030773957259953)
(0 0.00561740901321173 -0.00210824888199568)
(0 0.0059035774320364 -0.00107134145218879)
(0 0.00499999988824129 0)
(0 0.00490392651408911 0.000975451606791466)
(0 0.00490392651408911 -0.000975451606791466)
(0 0.00461939768865705 0.00191341724712402)
(0 0.00415734807029366 0.00277785118669271)
(0 0.0035355337895453 0.0035355337895453)
(0 0.00277785118669271 0.00415734807029366)
(0 0.00191341724712402 0.00461939768865705)
(0 0.000975451606791466 0.00490392651408911)
(0 3.06161697636655e-19 0.00499999988824129)
(0 -0.000975451606791466 0.00490392651408911)
(0 -0.00191341724712402 0.00461939768865705)
(0 -0.00277785118669271 0.00415734807029366)
(0 -0.0035355337895453 0.0035355337895453)
(0 -0.00415734807029366 0.00277785118669271)
(0 -0.00461939768865705 0.00191341724712402)
(0 -0.00490392651408911 0.000975451606791466)
(0 -0.00499999988824129 -3.82856865566443e-18)
(0 -0.00490392651408911 -0.000975451606791466)
(0 -0.00461939768865705 -0.00191341724712402)
(0 -0.00415734807029366 -0.00277785118669271)
(0 -0.0035355337895453 -0.0035355337895453)
(0 -0.00277785118669271 -0.00415734807029366)
(0 -0.00191341724712402 -0.00461939768865705)
(0 -0.000975451606791466 -0.00490392651408911)
(0 1.24041911891502e-17 -0.00499999988824129)
(0 0.000975451606791466 -0.00490392651408911)
(0 0.00191341724712402 -0.00461939768865705)
(0 0.00277785118669271 -0.00415734807029366)
(0 0.0035355337895453 -0.0035355337895453)
(0 0.00415734807029366 -0.00277785118669271)
(0 0.00461939768865705 -0.00191341724712402)
)

// edges

301
(
(26 27)
(28 26)
(27 29)
(29 30)
(30 31)
(31 32)
(32 33)
(33 34)
(34 35)
(35 36)
(36 37)
(37 38)
(38 39)
(39 40)
(40 41)
(41 42)
(42 43)
(43 44)
(44 45)
(45 46)
(46 47)
(47 48)
(48 49)
(49 50)
(50 51)
(51 52)
(52 53)
(53 54)
(54 55)
(55 56)
(56 57)
(57 58)
(58 59)
(59 60)
(60 28)
(61 62)
(63 61)
(62 64)
(64 65)
(65 66)
(66 67)
(67 68)
(68 69)
(69 70)
(70 71)
(71 72)
(72 73)
(73 74)
(74 75)
(75 76)
(76 77)
(77 78)
(78 79)
(79 80)
(80 81)
(81 82)
(82 83)
(83 84)
(84 85)
(85 86)
(86 87)
(87 88)
(88 89)
(89 90)
(90 91)
(91 92)
(92 93)
(93 94)
(94 95)
(95 96)
(96 97)
(97 98)
(98 99)
(99 100)
(100 63)
(0 1)
(2 0)
(1 3)
(3 4)
(4 5)
(5 6)
(6 7)
(7 8)
(8 9)
(9 10)
(10 11)
(11 12)
(12 13)
(13 14)
(14 15)
(15 16)
(16 17)
(17 18)
(18 19)
(19 20)
(20 21)
(21 22)
(22 23)
(23 24)
(24 25)
(25 2)
(101 102)
(102 103)
(103 104)
(104 105)
(105 106)
(106 107)
(107 108)
(108 109)
(109 110)
(110 111)
(111 112)
(112 113)
(113 114)
(114 115)
(115 116)
(116 117)
(117 118)
(118 119)
(119 120)
(120 121)
(121 122)
(122 123)
(123 124)
(124 125)
(125 126)
(126 127)
(127 128)
(128 129)
(129 130)
(130 131)
(131 132)
(132 133)
(133 134)
(134 135)
(135 101)
(136 137)
(138 136)
(137 139)
(139 140)
(140 141)
(141 142)
(142 143)
(143 144)
(144 145)
(145 146)
(146 147)
(147 148)
(148 149)
(149 150)
(150 151)
(151 152)
(152 153)
(153 154)
(154 155)
(155 156)
(156 157)
(157 158)
(158 159)
(159 160)
(160 161)
(161 138)
(162 163)
(163 164)
(165 162)
(166 165)
(167 166)
(168 167)
(169 168)
(170 169)
(171 170)
(172 171)
(173 172)
(174 173)
(175 174)
(176 175)
(177 176)
(178 177)
(179 178)
(180 179)
(181 180)
(182 181)
(183 182)
(184 183)
(185 184)
(186 185)
(187 186)
(188 187)
(189 188)
(190 189)
(191 190)
(192 191)
(193 192)
(164 193)
(194 195)
(195 196)
(196 197)
(197 198)
(198 199)
(199 200)
(200 201)
(201 202)
(202 203)
(203 204)
(204 205)
(205 206)
(206 207)
(207 208)
(208 209)
(209 210)
(210 211)
(211 212)
(212 213)
(213 214)
(214 215)
(215 216)
(216 217)
(217 218)
(218 219)
(219 220)
(220 221)
(221 222)
(222 223)
(223 224)
(224 225)
(225 226)
(226 227)
(227 228)
(228 229)
(229 230)
(230 231)
(231 232)
(232 233)
(233 194)
(234 235)
(236 234)
(237 236)
(238 237)
(239 238)
(240 239)
(241 240)
(242 241)
(243 242)
(244 243)
(245 244)
(246 245)
(247 246)
(248 247)
(249 248)
(250 249)
(251 250)
(252 251)
(253 252)
(254 253)
(255 254)
(256 255)
(257 256)
(258 257)
(259 258)
(260 259)
(261 260)
(262 261)
(263 262)
(264 263)
(265 264)
(266 265)
(267 266)
(268 267)
(235 268)
(269 270)
(271 269)
(270 272)
(272 273)
(273 274)
(274 275)
(275 276)
(276 277)
(277 278)
(278 279)
(279 280)
(280 281)
(281 282)
(282 283)
(283 284)
(284 285)
(285 286)
(286 287)
(287 288)
(288 289)
(289 290)
(290 291)
(291 292)
(292 293)
(293 294)
(294 295)
(295 296)
(296 297)
(297 298)
(298 299)
(299 300)
(300 271)
)

// concaveStart mixedStart nonFeatureStart
0 0 0
// internalStart flatStart openStart multipleStart
75 162 162 301
// normals

463
(
(-0.0283516051727077 0.992309811676756 0.120488273845098)
(0.765911171502228 0.638258596274943 0.0774986557897851)
(-0.0283516051727077 0.992309811676756 -0.120488273845098)
(0.765911171502228 0.638258596274943 -0.0774986557897851)
(-0.0355186496938332 0.934426259537494 0.354381138057169)
(0.767332747342411 0.599578357636596 0.227390078740803)
(-0.0405371344800718 0.822307426775512 0.567597777125651)
(0.76862647889212 0.52646102462155 0.363389770770077)
(-0.0434053077231289 0.662497803902642 0.747805214668658)
(0.769794911097026 0.423265498774462 0.477767843618977)
(-0.0441222550265211 0.464270277980505 0.884593881730639)
(0.770840101659609 0.296041785328356 0.564060988735264)
(-0.0426883368410657 0.239097563834392 0.970056730746301)
(0.771764426553278 0.152182906718533 0.617430184563071)
(-0.0391032611087076 0 0.999235175006697)
(0.772569202686126 0 0.634930568693085)
(-0.0333683000513925 -0.239182445706894 0.970401109962962)
(0.773256285317874 -0.151748567770344 0.615668002576106)
(-0.0254856732426912 -0.464571905593295 0.885168585633709)
(0.773826861666483 -0.294354145017094 0.560845455963279)
(-0.0309791389993227 -0.662804488744742 0.748151390192307)
(0.774282049111596 -0.41965105339769 0.473687979376465)
(-0.0374304074585714 -0.822407175892486 0.567666628962837)
(0.774622674464253 -0.520474502801032 0.359257573531673)
(-0.0417323121752973 -0.934201681632395 0.354295966891676)
(0.774849381057401 -0.591066682168893 0.224162026009803)
(-0.0438833255950569 -0.991752554963598 0.120420610602564)
(0.774962752913575 -0.62739886226245 0.0761800448175012)
(-0.0438833255950572 -0.991752554963598 -0.120420610602563)
(0.774962752913576 -0.62739886226245 -0.0761800448175006)
(-0.0417323121752973 -0.934201681632395 -0.354295966891676)
(0.774849381057401 -0.591066682168893 -0.224162026009803)
(-0.0374304074585714 -0.822407175892486 -0.567666628962837)
(0.774622674464253 -0.520474502801032 -0.359257573531673)
(-0.0309791389993227 -0.662804488744742 -0.748151390192307)
(0.774282049111596 -0.41965105339769 -0.473687979376465)
(-0.0254856732426912 -0.464571905593295 -0.885168585633709)
(0.773826861666483 -0.294354145017094 -0.560845455963279)
(-0.0333683000513925 -0.239182445706894 -0.970401109962962)
(0.773256285317874 -0.151748567770344 -0.615668002576106)
(-0.0391032611087076 -0 -0.999235175006697)
(0.772569202686126 0 -0.634930568693085)
(-0.0426883368410657 0.239097563834392 -0.970056730746301)
(0.771764426553278 0.152182906718533 -0.617430184563071)
(-0.0441222550265211 0.464270277980505 -0.884593881730639)
(0.770840101659609 0.296041785328356 -0.564060988735264)
(-0.0434053077231289 0.662497803902642 -0.747805214668658)
(0.769794911097026 0.423265498774462 -0.477767843618977)
(-0.0405371344800718 0.822307426775512 -0.567597777125651)
(0.76862647889212 0.52646102462155 -0.363389770770077)
(-0.0355186496938332 0.934426259537494 -0.354381138057169)
(0.767332747342411 0.599578357636596 -0.227390078740803)
(0.766948921509034 0.639124815534256 0.0575223605603307)
(0.623157844630405 0.778947595968442 0.07010665739124)
(0.766948921509034 0.639124815534256 -0.0575223605603307)
(0.623157844630405 0.778947595968442 -0.07010665739124)
(0.760715304027513 0.625694470142383 0.17268079294343)
(0.630158674373645 0.748484728510431 0.20656876893257)
(0.762817865610376 0.582578673589399 0.280554794976751)
(0.633455789433482 0.69715082993492 0.33572977698479)
(0.772964877231742 0.513279805380943 0.37291975001898)
(0.633157447872015 0.626197700063444 0.45495943405918)
(0.762817960707377 0.446850301704635 0.467368769483708)
(0.629253804171461 0.537093808967563 0.561756077229663)
(0.760715453131812 0.357579192696718 0.541709442705982)
(0.62161645580575 0.431529526881347 0.653739435326536)
(0.766948842145328 0.25220723125745 0.590068628240303)
(0.624589984243728 0.306933807941443 0.718107923034543)
(0.766948846980919 0.14279389549443 0.625619188903413)
(0.630961192 0.172635401115294 0.756363003108759)
(0.760715397389436 0.0291210596354304 0.648431991854459)
(0.633654508009491 0.0347080927572258 0.772837183872778)
(0.762817897790978 -0.0867972633822799 0.640761336129998)
(0.632759306969621 -0.103943618890725 0.767340461291612)
(0.772964952869285 -0.19605533248939 0.603396625975203)
(0.628245622247501 -0.240419747732923 0.739936337144547)
(0.762817993572605 -0.306409631778302 0.569404817537883)
(0.619964659414232 -0.371811286387729 0.690941523134988)
(0.760715415253809 -0.40469834593498 0.507475423831259)
(0.625914526065575 -0.486254645280766 0.609743737977671)
(0.766948873889531 -0.48325207501163 0.422204757003678)
(0.63166149002057 -0.583814299552231 0.510063354558364)
(0.766948879985874 -0.55087370837208 0.329131543478904)
(0.633753888574256 -0.664040065603141 0.39674525830914)
(0.760715393087978 -0.607696500310247 0.228072475826615)
(0.632260769910178 -0.725353192144571 0.272229802700348)
(0.76281785549337 -0.636222089938572 0.115457228507751)
(0.627132740790823 -0.76639496872712 0.139080111223521)
(0.772964823382703 -0.634448880378039 0)
(0.618201160388125 -0.786019926779706 0)
(0.76281785549337 -0.636222089938572 -0.115457228507751)
(0.627132740790823 -0.76639496872712 -0.139080111223521)
(0.760715393087978 -0.607696500310247 -0.228072475826615)
(0.632260769910178 -0.725353192144571 -0.272229802700348)
(0.766948879985874 -0.55087370837208 -0.329131543478904)
(0.633753888574256 -0.664040065603141 -0.39674525830914)
(0.766948873889531 -0.48325207501163 -0.422204757003678)
(0.63166149002057 -0.583814299552231 -0.510063354558364)
(0.760715415253809 -0.40469834593498 -0.507475423831259)
(0.625914526065575 -0.486254645280766 -0.609743737977671)
(0.762817993572605 -0.306409631778302 -0.569404817537883)
(0.619964659414232 -0.371811286387729 -0.690941523134988)
(0.772964833881871 -0.196055377286124 -0.603396763845455)
(0.628245622247501 -0.240419747732923 -0.739936337144547)
(0.762817897790978 -0.0867972633822799 -0.640761336129998)
(0.632759306969621 -0.103943618890725 -0.767340461291612)
(0.760715397389436 0.0291210596354304 -0.648431991854459)
(0.633654508009491 0.0347080927572258 -0.772837183872778)
(0.766948846980919 0.14279389549443 -0.625619188903413)
(0.630961192 0.172635401115294 -0.756363003108759)
(0.766948842145328 0.25220723125745 -0.590068628240303)
(0.624589984243728 0.306933807941443 -0.718107923034543)
(0.760715453131812 0.357579192696718 -0.541709442705982)
(0.62161645580575 0.431529526881347 -0.653739435326536)
(0.762817960707377 0.446850301704635 -0.467368769483708)
(0.629253804171461 0.537093808967563 -0.561756077229663)
(0.772964877231742 0.513279805380943 -0.37291975001898)
(0.633157447872015 0.626197700063444 -0.45495943405918)
(0.762817865610376 0.582578673589399 -0.280554794976751)
(0.633455789433482 0.69715082993492 -0.33572977698479)
(0.760715304027513 0.625694470142383 -0.17268079294343)
(0.630158674373645 0.748484728510431 -0.20656876893257)
(0.623519114583929 0.779398022183913 0.0613403355409574)
(0 0.99691729562533 0.0784595799318206)
(0.623519114583929 0.779398022183913 -0.0613403355409574)
(0 0.99691729562533 -0.0784595799318206)
(0.615657835446654 0.766240783645862 0.183957851506579)
(0 0.972370002491191 0.233445021911543)
(0.617421649180222 0.726753544582234 0.301031215259703)
(0 0.923879514267575 0.382683476409303)
(0.628653019361444 0.663086219692339 0.406339816535203)
(0 0.852640130840199 0.522498619405649)
(0.619572960543246 0.596872340148783 0.509777163208586)
(0 0.760405949367887 0.649448067335582)
(0.615175037424559 0.512018724769648 0.599496871397138)
(0 0.649448067335582 0.760405949367887)
(0.620445439400418 0.409769340473842 0.668682693311899)
(0 0.522498619405649 0.852640130840199)
(0.627261392161742 0.298037258783174 0.719525495226072)
(0 0.382683476409303 0.923879514267575)
(0.616861365167597 0.183737999203921 0.765325031481467)
(0 0.233445021911543 0.972370002491191)
(0.615979241610583 0.0618075057476517 0.785333945616834)
(0 0.0784595799318206 0.99691729562533)
(0.624693201252014 -0.0612667546585694 0.778463094233193)
(0 -0.0784595799318205 0.99691729562533)
(0.622418999348833 -0.182713735038727 0.761058657580213)
(0 -0.233445021911543 0.972370002491191)
(0.615416396500115 -0.301631946074055 0.72820383686602)
(0 -0.382683476409303 0.923879514267575)
(0.618060537883161 -0.410752103741214 0.670286416976911)
(0 -0.522498619405649 0.852640130840199)
(0.630115397548683 -0.504297401080145 0.590456363363015)
(0 -0.649448067335582 0.760405949367887)
(0.618777872710749 -0.597349061902658 0.510184322071518)
(0 -0.760405949367887 0.649448067335582)
(0.615255645905309 -0.672159794116671 0.411900110894227)
(0 -0.852640130840199 0.522498619405649)
(0.621394303642409 -0.723857753672304 0.299831739229276)
(0 -0.923879514267575 0.382683476409303)
(0.625941060650599 -0.758322550245562 0.182056854802754)
(0 -0.972370002491191 0.233445021911543)
(0.616380438694058 -0.785021038333357 0.0617828792574434)
(0 -0.99691729562533 0.0784595799318206)
(0.616380438694058 -0.785021038333357 -0.0617828792574433)
(0 -0.99691729562533 -0.0784595799318205)
(0.625941060650599 -0.758322550245562 -0.182056854802754)
(0 -0.972370002491191 -0.233445021911543)
(0.621394303642409 -0.723857753672304 -0.299831739229276)
(-0 -0.923879514267575 -0.382683476409303)
(0.615255645905309 -0.672159794116671 -0.411900110894227)
(0 -0.852640130840199 -0.522498619405649)
(0.618777872710749 -0.597349061902658 -0.510184322071518)
(-0 -0.760405949367887 -0.649448067335582)
(0.630115397548683 -0.504297401080145 -0.590456363363015)
(0 -0.649448067335582 -0.760405949367887)
(0.618060537883161 -0.410752103741214 -0.670286416976911)
(0 -0.522498619405649 -0.852640130840199)