/*--------------------------------*- C++ -*----------------------------------*\
| =========                 |                                                 |
| \\      /  F ield         | OpenFOAM: The Open Source CFD Toolbox           |
|  \\    /   O peration     | Version:  plus                                  |
|   \\  /    A nd           | Web:      www.OpenFOAM.com                      |
|    \\/     M anipulation  |                                                 |
\*---------------------------------------------------------------------------*/
FoamFile
{
    version     2.0;
    format      ascii;
    class       extendedFeatureEdgeMesh;
    location    "constant/extendedFeatureEdgeMesh";
    object      Revolution_Geometry.extendedFeatureEdgeMesh;
}
// * * * * * * * * * * * * * * * * * * * * * * * * * * * * * * * * * * * * * //

// points

308
(
(0.100000001490116 0.0035355337895453 -0.0035355337895453)
(0.100000001490116 0.00415734807029366 -0.00277785118669271)
(0.100000001490116 0.00461939768865705 -0.00191341724712402)
(0.100000001490116 0.000975451606791466 -0.00490392651408911)
(0.100000001490116 0.00191341724712402 -0.00461939768865705)
(0.100000001490116 0.00277785118669271 -0.00415734807029366)
(0.100000001490116 0.00490392651408911 -0.000975451606791466)
(0.100000001490116 -0.000975451606791466 -0.00490392651408911)
(0.100000001490116 1.24041911891502e-17 -0.00499999988824129)
(0.100000001490116 0.00499999988824129 0)
(0.100000001490116 0.00490392651408911 0.000975451606791466)
(0.100000001490116 -0.0035355337895453 -0.0035355337895453)
(0.100000001490116 -0.00277785118669271 -0.00415734807029366)
(0.100000001490116 -0.00191341724712402 -0.00461939768865705)
(0.100000001490116 0.00461939768865705 0.00191341724712402)
(0.100000001490116 0.00415734807029366 0.00277785118669271)
(0.100000001490116 -0.00461939768865705 -0.00191341724712402)
(0.100000001490116 -0.00415734807029366 -0.00277785118669271)
(0.100000001490116 0.0035355337895453 0.0035355337895453)
(0.100000001490116 0.00277785118669271 0.00415734807029366)
(0.100000001490116 0.00191341724712402 0.00461939768865705)
(0.100000001490116 0.000975451606791466 0.00490392651408911)
(0.100000001490116 3.06161697636655e-19 0.00499999988824129)
(0.100000001490116 -0.000975451606791466 0.00490392651408911)
(0.100000001490116 -0.00490392651408911 -0.000975451606791466)
(0.100000001490116 -0.00191341724712402 0.00461939768865705)
(0.100000001490116 -0.00461939768865705 0.00191341724712402)
(0.100000001490116 -0.00490392651408911 0.000975451606791466)
(0.100000001490116 -0.00499999988824129 -3.82856865566443e-18)
(0.100000001490116 -0.00277785118669271 0.00415734807029366)
(0.100000001490116 -0.0035355337895453 0.0035355337895453)
(0.100000001490116 -0.00415734807029366 0.00277785118669271)
(0.0299999993294477 0.00300000002607703 0)
(0.0299999993294477 0.0029128254391253 0.000717947026714683)
(0.0299999993294477 0.00265636807307601 0.00139416952151805)
(0.0299999993294477 0.00224553234875202 0.00198936788365245)
(0.0299999993294477 0.00170419423375279 0.00246895174495876)
(0.0299999993294477 0.00106381461955607 0.00280504859983921)
(0.0299999993294477 0.000361610058462247 0.00297812651842833)
(0.0299999993294477 -0.000361610058462247 0.00297812651842833)
(0.0299999993294477 -0.00106381461955607 0.00280504859983921)
(0.0299999993294477 -0.00170419423375279 0.00246895174495876)
(0.0299999993294477 -0.00224553234875202 0.00198936788365245)
(0.0299999993294477 -0.00265636807307601 0.00139416952151805)
(0.0299999993294477 -0.0029128254391253 0.000717947026714683)
(0.0299999993294477 -0.00300000002607703 3.03192920568809e-18)
(0.0299999993294477 -0.0029128254391253 -0.000717947026714683)
(0.0299999993294477 -0.00265636807307601 -0.00139416952151805)
(0.0299999993294477 -0.00224553234875202 -0.00198936788365245)
(0.0299999993294477 -0.00170419423375279 -0.00246895174495876)
(0.0299999993294477 -0.00106381461955607 -0.00280504859983921)
(0.0299999993294477 -0.000361610058462247 -0.00297812651842833)
(0.0299999993294477 0.000361610058462247 -0.00297812651842833)
(0.0299999993294477 0.00106381461955607 -0.00280504859983921)
(0.0299999993294477 0.00170419423375279 -0.00246895174495876)
(0.0299999993294477 0.00224553234875202 -0.00198936788365245)
(0.0299999993294477 0.00265636807307601 -0.00139416952151805)
(0.0299999993294477 0.0029128254391253 -0.000717947026714683)
(0.0274999998509884 0.0045184288173914 0.00394763238728046)
(0.0274999998509884 0.00374093884602189 0.00469098892062902)
(0.0274999998509884 0.00284321187064052 0.0052835731767118)
(0.0274999998509884 0.00185410201083869 0.00570633867755532)
(0.0274999998509884 0.000805399613454938 0.00594569882377982)
(0.0274999998509884 -0.00026918898220174 0.00599395856261253)
(0.0274999998509884 -0.00133512553293258 0.00584956724196672)
(0.0274999998509884 -0.00414637569338083 0.00433676922693849)
(0.0274999998509884 -0.00485410215333104 0.00352671137079597)
(0.0274999998509884 -0.00540581298992038 0.00260330247692764)
(0.0274999998509884 -0.00578377721831203 0.0015962211182341)
(0.0274999998509884 -0.00597584573552012 0.000537835818249732)
(0.0274999998509884 -0.00540581298992038 -0.00260330247692764)
(0.0274999998509884 -0.00485410215333104 -0.00352671137079597)
(0.0274999998509884 -0.00414637569338083 -0.00433676922693849)
(0.0274999998509884 -0.00133512553293258 -0.00584956724196672)
(0.0274999998509884 -0.00026918898220174 -0.00599395856261253)
(0.0274999998509884 0.000805399613454938 -0.00594569882377982)
(0.0274999998509884 0.00185410201083869 -0.00570633867755532)
(0.0274999998509884 0.00284321187064052 -0.0052835731767118)
(0.0274999998509884 0.00515069300308824 -0.0030773957259953)
(0.0274999998509884 0.00561740901321173 -0.00210824888199568)
(0.0274999998509884 0.00600000005215406 0)
(0.0274999998509884 0.0059035774320364 0.00107134145218879)
(0.0274999998509884 0.00515069300308824 0.0030773957259953)
(0.0274999998509884 -0.00235815020278096 0.00551716657355428)
(0.0274999998509884 -0.00597584573552012 -0.000537835818249732)
(0.0274999998509884 -0.00235815020278096 -0.00551716657355428)
(0.0274999998509884 0.0045184288173914 -0.00394763238728046)
(0.0274999998509884 0.0059035774320364 -0.00107134145218879)
(0.0274999998509884 0.00561740901321173 0.00210824888199568)
(0.0274999998509884 -0.00330538186244667 0.00500743975862861)
(0.0274999998509884 -0.00578377721831203 -0.0015962211182341)
(0.0274999998509884 -0.00330538186244667 -0.00500743975862861)
(0.0274999998509884 0.00374093884602189 -0.00469098892062902)
(0.025000000372529 0.00800000037997961 0)
(0.025000000372529 0.007901506498456 0.0012514756526798)
(0.025000000372529 0.00760845234617591 0.00247213593684137)
(0.025000000372529 0.00712805241346359 0.00363192381337285)
(0.025000000372529 0.00647213589400053 0.00470228213816881)
(0.025000000372529 0.00565685424953699 0.00565685424953699)
(0.025000000372529 -0.00470228213816881 0.00647213589400053)
(0.025000000372529 -0.00565685424953699 0.00565685424953699)
(0.025000000372529 0.00470228213816881 0.00647213589400053)
(0.025000000372529 0.00363192381337285 0.00712805241346359)
(0.025000000372529 0.00247213593684137 0.00760845234617591)
(0.025000000372529 -0.00565685424953699 -0.00565685424953699)
(0.025000000372529 -0.00470228213816881 -0.00647213589400053)
(0.025000000372529 0.0012514756526798 0.007901506498456)
(0.025000000372529 0.00647213589400053 -0.00470228213816881)
(0.025000000372529 0.00712805241346359 -0.00363192381337285)
(0.025000000372529 4.89858736898164e-19 0.00800000037997961)
(0.025000000372529 0.00760845234617591 -0.00247213593684137)
(0.025000000372529 0.007901506498456 -0.0012514756526798)
(0.025000000372529 -0.0012514756526798 0.007901506498456)
(0.025000000372529 -0.00247213593684137 0.00760845234617591)
(0.025000000372529 -0.00363192381337285 0.00712805241346359)
(0.025000000372529 -0.00647213589400053 0.00470228213816881)
(0.025000000372529 -0.00712805241346359 0.00363192381337285)
(0.025000000372529 -0.00760845234617591 0.00247213593684137)
(0.025000000372529 -0.007901506498456 0.0012514756526798)
(0.025000000372529 -0.00800000037997961 9.79717473796328e-19)
(0.025000000372529 -0.007901506498456 -0.0012514756526798)
(0.025000000372529 -0.00760845234617591 -0.00247213593684137)
(0.025000000372529 -0.00712805241346359 -0.00363192381337285)
(0.025000000372529 -0.00647213589400053 -0.00470228213816881)
(0.025000000372529 -0.00363192381337285 -0.00712805241346359)
(0.025000000372529 -0.00247213593684137 -0.00760845234617591)
(0.025000000372529 -0.0012514756526798 -0.007901506498456)
(0.025000000372529 -1.46957610729692e-18 -0.00800000037997961)
(0.025000000372529 0.0012514756526798 -0.007901506498456)
(0.025000000372529 0.00247213593684137 -0.00760845234617591)
(0.025000000372529 0.00363192381337285 -0.00712805241346359)
(0.025000000372529 0.00470228213816881 -0.00647213589400053)
(0.025000000372529 0.00565685424953699 -0.00565685424953699)
(0 -0.007901506498456 0.0012514756526798)
(0 -0.00800000037997961 9.79717473796328e-19)
(0 -0.007901506498456 -0.0012514756526798)
(0 -0.00760845234617591 -0.00247213593684137)
(0 0.00800000037997961 0)
(0 0.007901506498456 0.0012514756526798)
(0 -0.00712805241346359 -0.00363192381337285)
(0 0.00760845234617591 0.00247213593684137)
(0 -0.00647213589400053 -0.00470228213816881)
(0 0.00712805241346359 0.00363192381337285)
(0 -0.00565685424953699 -0.00565685424953699)
(0 0.00647213589400053 0.00470228213816881)
(0 0.00565685424953699 0.00565685424953699)
(0 -0.00470228213816881 -0.00647213589400053)
(0 -0.00363192381337285 -0.00712805241346359)
(0 0.00470228213816881 0.00647213589400053)
(0 0.00363192381337285 0.00712805241346359)
(0 -0.00247213593684137 -0.00760845234617591)
(0 0.00247213593684137 0.00760845234617591)
(0 -0.0012514756526798 -0.007901506498456)
(0 -1.46957610729692e-18 -0.00800000037997961)
(0 0.0012514756526798 0.007901506498456)
(0 0.0012514756526798 -0.007901506498456)
(0 4.89858736898164e-19 0.00800000037997961)
(0 0.00247213593684137 -0.00760845234617591)
(0 -0.0012514756526798 0.007901506498456)
(0 0.00363192381337285 -0.00712805241346359)
(0 -0.00247213593684137 0.00760845234617591)
(0 0.00470228213816881 -0.00647213589400053)
(0 -0.00363192381337285 0.00712805241346359)
(0 0.00565685424953699 -0.00565685424953699)
(0 -0.00470228213816881 0.00647213589400053)
(0 0.00647213589400053 -0.00470228213816881)
(0 -0.00565685424953699 0.00565685424953699)
(0 0.00712805241346359 -0.00363192381337285)
(0 -0.00647213589400053 0.00470228213816881)
(0 0.00760845234617591 -0.00247213593684137)
(0 -0.00712805241346359 0.00363192381337285)
(0 0.007901506498456 -0.0012514756526798)
(0 -0.00760845234617591 0.00247213593684137)
(0 0.00185410201083869 0.00570633867755532)
(0 0.000805399613454938 0.00594569882377982)
(0 -0.00485410215333104 0.00352671137079597)
(0 -0.00540581298992038 0.00260330247692764)
(0 0.00284321187064052 -0.0052835731767118)
(0 0.00374093884602189 -0.00469098892062902)
(0 0.0059035774320364 0.00107134145218879)
(0 0.00561740901321173 0.00210824888199568)
(0 0.00515069300308824 0.0030773957259953)
(0 -0.00414637569338083 0.00433676922693849)
(0 0.0045184288173914 -0.00394763238728046)
(0 0.00284321187064052 0.0052835731767118)
(0 0.0045184288173914 0.00394763238728046)
(0 0.00374093884602189 0.00469098892062902)
(0 -0.00330538186244667 0.00500743975862861)
(0 0.00515069300308824 -0.0030773957259953)
(0 -0.00485410215333104 -0.00352671137079597)
(0 -0.00414637569338083 -0.00433676922693849)
(0 -0.00235815020278096 0.00551716657355428)
(0 -0.00330538186244667 -0.00500743975862861)
(0 -0.00540581298992038 -0.00260330247692764)
(0 0.00561740901321173 -0.00210824888199568)
(0 0.0059035774320364 -0.00107134145218879)
(0 -0.00235815020278096 -0.00551716657355428)
(0 -0.00133512553293258 0.00584956724196672)
(0 -0.00578377721831203 -0.0015962211182341)
(0 -0.00133512553293258 -0.00584956724196672)
(0 0.00600000005215406 0)
(0 -0.00597584573552012 -0.000537835818249732)
(0 -0.00026918898220174 0.00599395856261253)
(0 -0.00026918898220174 -0.00599395856261253)
(0 -0.00597584573552012 0.000537835818249732)
(0 0.000805399613454938 -0.00594569882377982)
(0 -0.00578377721831203 0.0015962211182341)
(0 0.00185410201083869 -0.00570633867755532)
(0.0140000004321337 -0.00578377721831203 -0.0015962211182341)
(0.0140000004321337 -0.00540581298992038 -0.00260330247692764)
(0.0140000004321337 -0.00485410215333104 -0.00352671137079597)
(0.0140000004321337 0.00600000005215406 0)
(0.0140000004321337 0.0059035774320364 0.00107134145218879)
(0.0140000004321337 -0.00414637569338083 -0.00433676922693849)
(0.0140000004321337 0.00561740901321173 0.00210824888199568)
(0.0140000004321337 -0.00330538186244667 -0.00500743975862861)
(0.0140000004321337 0.00515069300308824 0.0030773957259953)
(0.0140000004321337 -0.00235815020278096 -0.00551716657355428)
(0.0140000004321337 0.0045184288173914 0.00394763238728046)
(0.0140000004321337 -0.00133512553293258 -0.00584956724196672)
(0.0140000004321337 0.00374093884602189 0.00469098892062902)
(0.0140000004321337 -0.00026918898220174 -0.00599395856261253)
(0.0140000004321337 0.00284321187064052 0.0052835731767118)
(0.0140000004321337 0.000805399613454938 -0.00594569882377982)
(0.0140000004321337 0.00185410201083869 0.00570633867755532)
(0.0140000004321337 0.00185410201083869 -0.00570633867755532)
(0.0140000004321337 0.000805399613454938 0.00594569882377982)
(0.0140000004321337 0.00284321187064052 -0.0052835731767118)
(0.0140000004321337 -0.00026918898220174 0.00599395856261253)
(0.0140000004321337 0.00374093884602189 -0.00469098892062902)
(0.0140000004321337 -0.00133512553293258 0.00584956724196672)
(0.0140000004321337 0.0045184288173914 -0.00394763238728046)
(0.0140000004321337 -0.00235815020278096 0.00551716657355428)
(0.0140000004321337 0.00515069300308824 -0.0030773957259953)
(0.0140000004321337 -0.00330538186244667 0.00500743975862861)
(0.0140000004321337 0.00561740901321173 -0.00210824888199568)
(0.0140000004321337 -0.00414637569338083 0.00433676922693849)
(0.0140000004321337 0.0059035774320364 -0.00107134145218879)
(0.0140000004321337 -0.00485410215333104 0.00352671137079597)
(0.0140000004321337 -0.00540581298992038 0.00260330247692764)
(0.0140000004321337 -0.00578377721831203 0.0015962211182341)
(0.0140000004321337 -0.00597584573552012 0.000537835818249732)
(0.0140000004321337 -0.00597584573552012 -0.000537835818249732)
(0.0149999996647239 0.00106381461955607 0.00280504859983921)
(0.0149999996647239 0.000361610058462247 0.00297812651842833)
(0.0149999996647239 -0.000361610058462247 0.00297812651842833)
(0.0149999996647239 -0.00106381461955607 0.00280504859983921)
(0.0149999996647239 -0.00170419423375279 0.00246895174495876)
(0.0149999996647239 -0.00224553234875202 0.00198936788365245)
(0.0149999996647239 -0.00265636807307601 0.00139416952151805)
(0.0149999996647239 -0.0029128254391253 0.000717947026714683)
(0.0149999996647239 -0.00300000002607703 3.03192920568809e-18)
(0.0149999996647239 -0.0029128254391253 -0.000717947026714683)
(0.0149999996647239 -0.00265636807307601 -0.00139416952151805)
(0.0149999996647239 -0.00224553234875202 -0.00198936788365245)
(0.0149999996647239 -0.00170419423375279 -0.00246895174495876)
(0.0149999996647239 -0.00106381461955607 -0.00280504859983921)
(0.0149999996647239 -0.000361610058462247 -0.00297812651842833)
(0.0149999996647239 0.000361610058462247 -0.00297812651842833)
(0.0149999996647239 0.00106381461955607 -0.00280504859983921)
(0.0149999996647239 0.00300000002607703 0)
(0.0149999996647239 0.0029128254391253 0.000717947026714683)
(0.0149999996647239 0.00265636807307601 0.00139416952151805)
(0.0149999996647239 0.00224553234875202 0.00198936788365245)
(0.0149999996647239 0.00170419423375279 0.00246895174495876)
(0.0149999996647239 0.00170419423375279 -0.00246895174495876)
(0.0149999996647239 0.00224553234875202 -0.00198936788365245)
(0.0149999996647239 0.00265636807307601 -0.00139416952151805)
(0.0149999996647239 0.0029128254391253 -0.000717947026714683)
(0 0.00139108730945736 -0.00480259023606777)
(0 0.00214346288703382 -0.00451725209131837)
(0 0.00284032360650599 -0.00411491934210062)
(0 0.000602683401666582 0.00496354419738054)
(0 -0.000201329690753482 0.00499594490975142)
(0 -0.00100012845359743 0.00489895325154066)
(0 0.00346362194977701 -0.00360601232387125)
(0 0.00399721367284656 -0.00300371111370623)
(0 0.00442727981135249 -0.00232361583039165)
(0 0.00474268198013306 -0.00158333987928927)
(0 0.00493525108322501 -0.000802056456450373)
(0 0.00499999988824129 0)
(0 0.00493525108322501 0.000802056456450373)
(0 -0.001773024443537 0.0046750814653933)
(0 -0.00249999994412065 0.00433012703433633)
(0 -0.00316222687251866 0.00387302460148931)
(0 -0.00374255375936627 0.00331561337225139)
(0 -0.00422595022246242 0.00267232907935977)
(0 -0.00459989719092846 0.00195983308367431)
(0 -0.00485470937564969 0.00119657826144248)
(0 0.00474268198013306 0.00158333987928927)
(0 0.00442727981135249 0.00232361583039165)
(0 -0.00498378649353981 0.00040233283652924)
(0 0.00399721367284656 0.00300371111370623)
(0 -0.00498378649353981 -0.00040233283652924)
(0 -0.00485470937564969 -0.00119657826144248)
(0 0.00346362194977701 0.00360601232387125)
(0 0.00284032360650599 0.00411491934210062)
(0 -0.00459989719092846 -0.00195983308367431)
(0 -0.00422595022246242 -0.00267232907935977)
(0 -0.00374255375936627 -0.00331561337225139)
(0 -0.00316222687251866 -0.00387302460148931)
(0 0.00214346288703382 0.00451725209131837)
(0 0.00139108730945736 0.00480259023606777)
(0 -0.00249999994412065 -0.00433012703433633)
(0 -0.001773024443537 -0.0046750814653933)
(0 -0.00100012845359743 -0.00489895325154066)
(0 -0.000201329690753482 -0.00499594490975142)
(0 0.000602683401666582 -0.00496354419738054)
)

// edges

308
(
(0 1)
(1 2)
(3 4)
(4 5)
(2 6)
(7 8)
(8 3)
(9 10)
(6 9)
(11 12)
(12 13)
(13 7)
(5 0)
(10 14)
(14 15)
(16 17)
(17 11)
(18 19)
(19 20)
(20 21)
(15 18)
(21 22)
(22 23)
(24 16)
(23 25)
(26 27)
(27 28)
(28 24)
(25 29)
(29 30)
(30 31)
(31 26)
(58 59)
(59 60)
(60 61)
(61 62)
(62 63)
(63 64)
(65 66)
(66 67)
(67 68)
(68 69)
(70 71)
(71 72)
(73 74)
(74 75)
(75 76)
(76 77)
(78 79)
(80 81)
(82 58)
(64 83)
(69 84)
(85 73)
(86 78)
(79 87)
(87 80)
(88 82)
(83 89)
(84 90)
(91 85)
(92 86)
(81 88)
(89 65)
(90 70)
(72 91)
(77 92)
(93 94)
(94 95)
(96 97)
(95 96)
(97 98)
(99 100)
(98 101)
(101 102)
(102 103)
(104 105)
(103 106)
(107 108)
(106 109)
(110 111)
(111 93)
(109 112)
(112 113)
(113 114)
(114 99)
(100 115)
(115 116)
(116 117)
(117 118)
(118 119)
(119 120)
(120 121)
(121 122)
(122 123)
(123 104)
(105 124)
(124 125)
(125 126)
(126 127)
(127 128)
(128 129)
(129 130)
(130 131)
(131 132)
(132 107)
(108 110)
(133 134)
(134 135)
(135 136)
(137 138)
(136 139)
(138 140)
(139 141)
(140 142)
(141 143)
(142 144)
(144 145)
(143 146)
(146 147)
(145 148)
(148 149)
(147 150)
(149 151)
(150 152)
(152 153)
(151 154)
(153 155)
(154 156)
(155 157)
(156 158)
(157 159)
(158 160)
(159 161)
(160 162)
(161 163)
(162 164)
(163 165)
(164 166)
(165 167)
(166 168)
(167 169)
(168 170)
(169 171)
(171 137)
(170 172)
(172 133)
(173 174)
(175 176)
(177 178)
(179 180)
(180 181)
(182 175)
(178 183)
(184 173)
(181 185)
(186 184)
(185 186)
(187 182)
(183 188)
(189 190)
(191 187)
(190 192)
(193 189)
(188 194)
(194 195)
(192 196)
(197 191)
(198 193)
(196 199)
(195 200)
(201 198)
(202 197)
(199 203)
(204 201)
(203 205)
(174 202)
(206 204)
(205 207)
(176 206)
(200 179)
(207 177)
(269 270)
(270 271)
(272 273)
(273 274)
(271 275)
(275 276)
(276 277)
(277 278)
(278 279)
(280 281)
(274 282)
(282 283)
(279 280)
(283 284)
(284 285)
(285 286)
(286 287)
(287 288)
(281 289)
(289 290)
(288 291)
(290 292)
(291 293)
(293 294)
(292 295)
(295 296)
(294 297)
(297 298)
(298 299)
(299 300)
(296 301)
(301 302)
(300 303)
(303 304)
(304 305)
(302 272)
(305 306)
(306 307)
(307 269)
(32 33)
(33 34)
(34 35)
(35 36)
(36 37)
(37 38)
(38 39)
(39 40)
(40 41)
(41 42)
(42 43)
(43 44)
(44 45)
(45 46)
(46 47)
(47 48)
(48 49)
(49 50)
(50 51)
(51 52)
(52 53)
(53 54)
(54 55)
(55 56)
(56 57)
(57 32)
(208 209)
(209 210)
(211 212)
(210 213)
(212 214)
(213 215)
(214 216)
(215 217)
(216 218)
(217 219)
(218 220)
(219 221)
(220 222)
(221 223)
(222 224)
(223 225)
(224 226)
(225 227)
(226 228)
(227 229)
(228 230)
(229 231)
(230 232)
(231 233)
(232 234)
(233 235)
(234 236)
(235 237)
(237 211)
(236 238)
(238 239)
(239 240)
(240 241)
(241 242)
(242 208)
(243 244)
(244 245)
(245 246)
(246 247)
(247 248)
(248 249)
(249 250)
(250 251)
(251 252)
(252 253)
(253 254)
(254 255)
(255 256)
(256 257)
(257 258)
(258 259)
(260 261)
(261 262)
(262 263)
(263 264)
(264 243)
(259 265)
(265 266)
(266 267)
(267 268)
(268 260)
)

// concaveStart mixedStart nonFeatureStart
0 0 0
// internalStart flatStart openStart multipleStart
221 308 308 308
// normals

593
(
(1 0 -0)
(-0.0423071526411916 0.772318220513389 -0.633825426358415)
(-0.016824614290942 0.881796412040426 -0.471330054278945)
(1 0 0)
(-0.0255897035463086 0.290189672903609 -0.956626949658281)
(-0.011663765826737 0.471364711280507 -0.881861250722688)
(1 0 -0)
(-0.0121802229583616 0.95686933155493 -0.290263198663396)
(1 0 0)
(-0.0129541780991195 -0.0980086900010503 -0.995101244072207)
(-0.0315114530412986 0.0979682383948357 -0.994690531066341)
(1 0 0)
(-0.0653504603197353 0.99305741606692 0.0978073909808977)
(-0.0653504603197353 0.99305741606692 -0.0978073909808977)
(1 0 0)
(-0.0206930168263752 -0.63425759102851 -0.772844814485635)
(-0.0384543094547951 -0.47104811344474 -0.881268937898362)
(1 0 0)
(-0.0152768498267554 -0.290250856856056 -0.956828646077079)
(1 0 0)
(-0.018630161463763 0.634283326389424 -0.772876173101618)
(1 0 0)
(-0.0121802229583616 0.95686933155493 0.290263198663396)
(1 0 0)
(-0.016824614290942 0.881796412040426 0.471330054278945)
(1 0 0)
(-0.0230129859622854 -0.88168767997962 -0.471271935775148)
(-0.0114055241137893 -0.772960053545563 -0.634352165317129)
(1 0 0)
(-0.018630161463763 0.634283326389424 0.772876173101618)
(1 0 0)
(-0.011663765826737 0.471364711280507 0.881861250722688)
(-0.0255897035463086 0.290189672903609 0.956626949658281)
(1 0 0)
(-0.0423071526411916 0.772318220513389 0.633825426358415)
(1 0 0)
(-0.0315114530412987 0.0979682383948345 0.994690531066341)
(-0.01295417809912 -0.0980086900010515 0.995101244072207)
(1 0 -0)
(-0.0348554919659799 -0.956358846378592 -0.290108344645959)
(1 -0 0)
(-0.0152768498267554 -0.290250856856056 0.956828646077079)
(1 0 0)
(-0.0348554919659799 -0.956358846378592 0.290108344645959)
(-0.0139866557644409 -0.995087401879886 0.0980073266672756)
(1 0 -0)
(-0.0139866557644411 -0.995087401879886 -0.0980073266672763)
(1 -0 0)
(-0.0384543094547951 -0.47104811344474 0.881268937898362)
(-0.0206930168263752 -0.63425759102851 0.772844814485635)
(1 0 0)
(-0.0114055241137893 -0.772960053545563 0.634352165317129)
(-0.0230129859622854 -0.88168767997962 0.471271935775148)
(-0.0190399399005736 0.992528913909081 0.120514877683393)
(0.781452569856165 0.619415238860632 0.075210657040221)
(-0.0355186496938332 0.934426259537494 0.354381138057169)
(0.781452676191682 0.583416955118822 0.221260867196937)
(-0.0405371344800718 0.822307426775512 0.567597777125651)
(0.781381166849948 0.513586441093927 0.354503088303457)
(-0.0434053077231289 0.662497803902642 0.747805214668658)
(0.781261750495352 0.413923588058173 0.467223009345629)
(-0.0441222550265211 0.464270277980505 0.884593881730639)
(0.781094797260013 0.290178739172764 0.552889877846794)
(-0.0426883368410657 0.239097563834392 0.970056730746301)
(0.771764426553278 0.152182906718533 0.617430184563071)
(-0.0391032611087076 0 0.999235175006697)
(0.772569202686126 0 0.634930568693085)
(-0.0333683000513925 -0.239182445706894 0.970401109962962)
(0.773256285317874 -0.151748567770344 0.615668002576106)
(-0.0254856732426912 -0.464571905593295 0.885168585633709)
(0.773826861666483 -0.294354145017094 0.560845455963279)
(-0.0309791389993227 -0.662804488744742 0.748151390192307)
(0.774282049111596 -0.41965105339769 0.473687979376465)
(-0.0374304074585714 -0.822407175892486 0.567666628962837)
(0.774622674464253 -0.520474502801032 0.359257573531673)
(-0.0417323121752973 -0.934201681632395 0.354295966891676)
(0.774849381057401 -0.591066682168893 0.224162026009803)
(-0.0438833255950569 -0.991752554963598 0.120420610602564)
(0.774962752913575 -0.62739886226245 0.0761800448175012)
(-0.0438833255950572 -0.991752554963598 -0.120420610602563)
(0.774962752913576 -0.62739886226245 -0.0761800448175006)
(-0.0417323121752973 -0.934201681632395 -0.354295966891676)
(0.774849381057401 -0.591066682168893 -0.224162026009803)
(-0.0374304074585714 -0.822407175892486 -0.567666628962837)
(0.774622674464253 -0.520474502801032 -0.359257573531673)
(-0.0309791389993227 -0.662804488744742 -0.748151390192307)
(0.774282049111596 -0.41965105339769 -0.473687979376465)
(-0.0254856732426912 -0.464571905593295 -0.885168585633709)
(0.773826861666483 -0.294354145017094 -0.560845455963279)
(-0.0333683000513925 -0.239182445706894 -0.970401109962962)
(0.773256285317874 -0.151748567770344 -0.615668002576106)
(-0.0391032611087076 -0 -0.999235175006697)
(0.772569202686126 0 -0.634930568693085)
(-0.0426883368410657 0.239097563834392 -0.970056730746301)
(0.771764426553278 0.152182906718533 -0.617430184563071)
(-0.0441222550265211 0.464270277980505 -0.884593881730639)
(0.781094797260013 0.290178739172764 -0.552889877846794)
(-0.0434053077231289 0.662497803902642 -0.747805214668658)
(0.781261750495352 0.413923588058173 -0.467223009345629)
(-0.0405371344800718 0.822307426775512 -0.567597777125651)
(0.781381166849948 0.513586441093927 -0.354503088303457)
(-0.0355186496938332 0.934426259537494 -0.354381138057169)
(0.781452676191682 0.583416955118822 -0.221260867196937)
(-0.0190399399005736 0.992528913909081 -0.120514877683393)
(0.781452569856165 0.619415238860632 -0.075210657040221)
(0.762817960707377 0.446850301704635 0.467368769483708)
(0.629253804171461 0.537093808967563 0.561756077229663)
(0.760715453131812 0.357579192696718 0.541709442705982)
(0.642561889020189 0.42211581570687 0.639478269301569)
(0.766948842145328 0.25220723125745 0.590068628240303)
(0.624589984243728 0.306933807941443 0.718107923034543)
(0.766948846980919 0.14279389549443 0.625619188903413)
(0.630961192 0.172635401115294 0.756363003108759)
(0.760715397389436 0.0291210596354304 0.648431991854459)
(0.633654508009491 0.0347080927572258 0.772837183872778)
(0.762817897790978 -0.0867972633822799 0.640761336129998)
(0.632759306969621 -0.103943618890725 0.767340461291612)
(0.766948873889531 -0.48325207501163 0.422204757003678)
(0.63166149002057 -0.583814299552231 0.510063354558364)
(0.766948879985874 -0.55087370837208 0.329131543478904)
(0.633753888574256 -0.664040065603141 0.39674525830914)
(0.760715393087978 -0.607696500310247 0.228072475826615)
(0.632260769910178 -0.725353192144571 0.272229802700348)
(0.76281785549337 -0.636222089938572 0.115457228507751)
(0.627132740790823 -0.76639496872712 0.139080111223521)
(0.766948879985874 -0.55087370837208 -0.329131543478904)
(0.633753888574256 -0.664040065603141 -0.39674525830914)
(0.766948873889531 -0.48325207501163 -0.422204757003678)
(0.63166149002057 -0.583814299552231 -0.510063354558364)
(0.762817897790978 -0.0867972633822799 -0.640761336129998)
(0.632759306969621 -0.103943618890725 -0.767340461291612)
(0.760715397389436 0.0291210596354304 -0.648431991854459)
(0.633654508009491 0.0347080927572258 -0.772837183872778)
(0.766948846980919 0.14279389549443 -0.625619188903413)
(0.630961192 0.172635401115294 -0.756363003108759)
(0.766948842145328 0.25220723125745 -0.590068628240303)
(0.624589984243728 0.306933807941443 -0.718107923034543)
(0.762817865610376 0.582578673589399 -0.280554794976751)
(0.633455789433482 0.69715082993492 -0.33572977698479)
(0.754757606799368 0.653362890455316 0.0588038124135334)
(0.641776735953981 0.763804242544155 0.0687437288761952)
(0.752947867664664 0.532397969869856 0.386809914890625)
(0.633157447872015 0.626197700063444 0.45495943405918)
(0.752947762309715 -0.203357884306928 0.625871582773178)
(0.628245622247501 -0.240419747732923 0.739936337144547)
(0.752948022543262 -0.658079991602989 0)
(0.642382617043405 -0.766384089944765 0)
(0.752947762309715 -0.203357884306928 -0.625871582773178)
(0.628245622247501 -0.240419747732923 -0.739936337144547)
(0.75294785517942 0.532397981426738 -0.386809923287195)
(0.633157447872015 0.626197700063444 -0.45495943405918)
(0.787539637999318 0.594055586840719 -0.163949011351796)
(0.630158674373645 0.748484728510431 -0.20656876893257)
(0.754757606799368 0.653362890455316 -0.0588038124135334)
(0.641776735953981 0.763804242544155 -0.0687437288761952)
(0.740498742811956 0.605503230205513 0.291594667483138)
(0.633455789433482 0.69715082993492 0.33572977698479)
(0.740498915017195 -0.318466880357635 0.591810952056173)
(0.642494686455875 -0.36312073044479 0.674791755282479)
(0.740498731269512 -0.661257523197447 -0.120000487511599)
(0.627132740790823 -0.76639496872712 -0.139080111223521)
(0.740498915017195 -0.318466880357635 -0.591810952056173)
(0.642494686455875 -0.36312073044479 -0.674791755282479)
(0.74049896711769 0.464433836678982 -0.485759705044866)
(0.629253804171461 0.537093808967563 -0.561756077229663)
(0.769237020757033 0.615937099182877 0.169987928239116)
(0.630158674373645 0.748484728510431 0.20656876893257)
(0.769237375699067 -0.398387105041315 0.499561381978643)
(0.625914526065575 -0.486254645280766 0.609743737977671)
(0.769237193265369 -0.5982196998346 -0.224515770553025)
(0.632260769910178 -0.725353192144571 -0.272229802700348)
(0.769237375699067 -0.398387105041315 -0.499561381978643)
(0.625914526065575 -0.486254645280766 -0.609743737977671)
(0.769237426899977 0.3520027616438 -0.533261508878562)
(0.642561889020189 0.42211581570687 -0.639478269301569)
(0.608031533619005 0.791465476956426 0.0622900707260649)
(0 0.99691729562533 0.0784595799318206)
(0.651002341784831 0.738102461218717 0.177202448441151)
(0 0.972370002491191 0.233445021911543)
(0.605711837344217 0.678432186081042 0.415743838186919)
(0 0.852640130840199 0.522498619405649)