/*--------------------------------*- C++ -*----------------------------------*\
| =========                 |                                                 |
| \\      /  F ield         | OpenFOAM: The Open Source CFD Toolbox           |
|  \\    /   O peration     | Version:  4.x                                   |
|   \\  /    A nd           | Web:      www.OpenFOAM.org                      |
|    \\/     M anipulation  |                                                 |
\*---------------------------------------------------------------------------*/
FoamFile
{
    version     4.0;
    format      ascii;
    class       dictionary;
    location    "system";
    object      blockMeshDict;
}
// * * * * * * * * * * * * * * * * * * * * * * * * * * * * * * * * * * * * * //

xMin    -0.0025;
xMax    0.10250000000000001;
yMin    -0.0105;
yMax    0.0105;
zMin    -0.0105;
zMax    0.0105;
cellsX  210;
cellsY  42;
cellsZ  42;

vertices
(
    ( $xMin  $yMin  $zMin)
    ( $xMax  $yMin  $zMin)
    ( $xMax  $yMax  $zMin)
    ( $xMin  $yMax  $zMin)
    ( $xMin  $yMin  $zMax)
    ( $xMax  $yMin  $zMax)
    ( $xMax  $yMax  $zMax)
    ( $xMin  $yMax  $zMax)
);

blocks
(
    hex (0 1 2 3 4 5 6 7) ($cellsX $cellsY $cellsZ) simpleGrading (1 1 1)
);

edges
(
);

boundary
(
);

// ************************************************************************* //
