/*--------------------------------*- C++ -*----------------------------------*\
| =========                 |                                                 |
| \\      /  F ield         | OpenFOAM: The Open Source CFD Toolbox           |
|  \\    /   O peration     | Version:  4.x                                   |
|   \\  /    A nd           | Web:      www.OpenFOAM.org                      |
|    \\/     M anipulation  |                                                 |
\*---------------------------------------------------------------------------*/
FoamFile
{
    version     4.0;
    format      ascii;
    class       dictionary;
    location    "system";
    object      snappyHexMeshDict;
}
// * * * * * * * * * * * * * * * * * * * * * * * * * * * * * * * * * * * * * //

castellatedMesh true;
snap            true;
addLayers       false;

geometry
{
    "Revolution_Geometry.stl"
    {
        type triSurfaceMesh;
        name Revolution_Geometry;
        regions
        {
            face0
            {
                name face0;
            }

            face1
            {
                name face1;
            }

            face2
            {
                name face2;
            }

            face3
            {
                name face3;
            }

            face4
            {
                name face4;
            }

            face5
            {
                name face5;
            }

            face6
            {
                name face6;
            }

            face7
            {
                name face7;
            }

            face8
            {
                name face8;
            }

            face9
            {
                name face9;
            }

        }
    }

    "MeshRefinement.stl"
    {
        type triSurfaceMesh;
        name MeshRefinement;
    }

};

castellatedMeshControls
{
    maxLocalCells 100000;
    maxGlobalCells 2000000;
    minRefinementCells 0;
    nCellsBetweenLevels 3;

    features
    (
        {
            file "Revolution_Geometry.eMesh";
            level 0;
        }
        {
            file "MeshRefinement.eMesh";
            level 0;
        }

    );

    refinementSurfaces
    {
        Revolution_Geometry
        {
            level (0 0);
        }

        MeshRefinement
        {
            level (1 1);
            faceZone MeshRefinement;
        }

    }

    resolveFeatureAngle 30;

    refinementRegions
    {
    }

    locationInMesh (0.037 -0.00076 0.0011);
    allowFreeStandingZoneFaces true;
}

snapControls
{
    nSmoothPatch 3;
    tolerance 1.0;
    nSolveIter 100;
    nRelaxIter 5;
    nFeatureSnapIter 10;
}

addLayersControls
{
    relativeSizes true;
    layers
    {
    }
    expansionRatio 1.3;
    finalLayerThickness 1;
    minThickness 0.1;
    nGrow 0;
    featureAngle 30;
    nRelaxIter 3;
    nSmoothSurfaceNormals 1;
    nSmoothNormals 3;
    nSmoothThickness 2;
    maxFaceThicknessRatio 0.5;
    maxThicknessToMedialRatio 1;
    minMedianAxisAngle 90;
    nBufferCellsNoExtrude 0;
    nLayerIter 50;
}

meshQualityControls
{
    maxNonOrtho 65;

    maxBoundarySkewness 20;
    maxInternalSkewness 4;

    maxConcave 80;
    minVol 1e-13;
    minTetQuality -1;
    minArea -1;
    minTwist 0.01;
    minDeterminant 0.001;
    minFaceWeight 0.05;
    minVolRatio 0.01;
    minTriangleTwist -1;
    nSmoothScale 4;
    errorReduction 0.75;
    relaxed
    {
        maxNonOrtho 75;
    }
}

mergeTolerance 1e-6;

// ************************************************************************* //
